*SPEF "IEEE 1481.1999"
*DESIGN "full_adder"
*DATE "16:06:09 Thursday June 10, 2021"
*VENDOR "unknown"
*PROGRAM "qrouter"
*VERSION "unknown"
*DESIGN_FLOW "qflow"
*DIVIDER /
*DELIMITER :
*BUS_DELIMITER <>
*T_UNIT 1 PS
*C_UNIT 1 FF
*R_UNIT 1 OHM
*L_UNIT 1 HENRY

*NAME_MAP
*1 i_y
*2 NAND2X1_1
*3 OR2X2_1
*4 NOR2X1_1
*5 AND2X2_1
*6 i_x
*7 NAND2X1_1
*8 OR2X2_1
*9 NOR2X1_1
*10 AND2X2_1
*11 _5_
*12 NAND2X1_1
*13 NAND3X1_1
*14 OAI21X1_2
*15 _3_
*16 INVX1_1
*17 OAI21X1_2
*18 NAND3X1_1
*19 _0_
*20 NOR2X1_1
*21 OAI21X1_2
*22 OAI21X1_1
*23 i_carry
*24 OAI21X1_1
*25 INVX1_1
*26 _4_
*27 OR2X2_1
*28 NAND3X1_1
*29 _6_
*30 NAND3X1_1
*31 NAND2X1_2
*32 _1_
*33 AND2X2_1
*34 OAI21X1_1
*35 _2_
*36 OAI21X1_1
*37 NAND2X1_2
*38 _8_
*39 NAND2X1_2
*40 BUFX2_2
*41 _7_
*42 OAI21X1_2
*43 BUFX2_1
*44 o_carry
*45 BUFX2_1
*46 o_sum
*47 BUFX2_2

*PORTS
*1 I
*6 I
*23 I
*44 O
*46 O

*D_NET *1 0.00185454
*CONN
*P *1 O
*I *2:A I *L 0.0125
*I *3:A I *L 0.015065
*I *4:A I *L 0.0144193
*I *5:A I *L 0.0129068
*CAP
1 1_1 0.0002316
2 1_2 0.00050196
3 1_3 6.57e-05
4 1_4 0.00059484
5 1_5 0.00032904
6 1_6 0.0001314
*RES
1 *1 1_1 1.06667
2 1_1 1_2 2.24
3 1_2 1_3 0.266667
4 1_3 *2:A 0
5 1_3 1_4 2.24
6 1_4 *3:A 0
7 1_3 1_5 0.96
8 1_5 *4:A 0
9 1_1 1_6 0.533333
10 1_6 *5:A 0
*END
*D_NET *6 0.00186392
*CONN
*P *6 O
*I *7:B I *L 0.0129035
*I *8:B I *L 0.0143643
*I *9:B I *L 0.0150643
*I *10:B I *L 0.0125119
*CAP
1 6_1 0.00027792
2 6_2 0.00018528
3 6_3 0.00027792
4 6_4 0.0001314
5 6_5 0.000497
6 6_6 0.0002472
7 6_7 0.0002472
*RES
1 *6 6_1 1.28
2 6_1 6_2 0.853333
3 6_2 6_3 1.28
4 6_3 6_4 0.533333
5 6_4 *7:B 0
6 6_3 6_5 1.6
7 6_5 *8:B 0
8 6_2 6_6 1.06667
9 6_6 *9:B 0
10 6_1 6_7 1.06667
11 6_7 *10:B 0
*END
*D_NET *11 0.00107052
*CONN
*I *12:Y O *D NAND2X1
*I *13:B I *L 0.0159247
*I *14:C I *L 0.0129138
*CAP
1 11_1 0.00064872
2 11_2 0.00010512
3 11_3 0.00031668
*RES
1 *12:Y 11_1 2.56
2 11_1 11_2 0.426667
3 11_2 *13:B 0
4 11_1 11_3 1.38667
5 11_3 *14:C 0
*END
*D_NET *15 0.00066744
*CONN
*I *16:Y O *D INVX1
*I *17:B I *L 0.0182038
*I *18:A I *L 0.0158812
*CAP
1 15_1 0.00021936
2 15_2 0.00044808
*RES
1 *16:Y 15_1 0.64
2 15_1 *17:B 0
3 15_1 15_2 1.92
4 15_2 *18:A 0
*END
*D_NET *19 0.00168738
*CONN
*I *20:Y O *D NOR2X1
*I *21:A I *L 0.017346
*I *22:B I *L 0.0182038
*CAP
1 19_1 0.00112728
2 19_2 0.0001971
3 19_3 0.000363
*RES
1 *20:Y 19_1 5.12
2 19_1 19_2 0.8
3 19_2 *21:A 0
4 19_1 19_3 1.6
5 19_3 *22:B 0
*END
*D_NET *23 0.0010857
*CONN
*P *23 O
*I *24:C I *L 0.0129138
*I *25:A I *L 0.00932456
*CAP
1 23_1 0.0003285
2 23_2 0.0006258
3 23_3 0.0001314
*RES
1 *23 23_1 1.33333
2 23_1 23_2 2.66667
3 23_2 *24:C 0
4 23_1 23_3 0.533333
5 23_3 *25:A 0
*END
*D_NET *26 0.00044496
*CONN
*I *27:Y O *D OR2X2
*I *28:C I *L 0.0164926
*CAP
1 26_1 0.00044496
*RES
1 *27:Y 26_1 1.92
2 26_1 *28:C 0
*END
*D_NET *29 0.00105024
*CONN
*I *30:Y O *D NAND3X1
*I *31:B I *L 0.0129035
*CAP
1 29_1 0.00105024
*RES
1 *30:Y 29_1 4.69333
2 29_1 *31:B 0
*END
*D_NET *32 0.0010042
*CONN
*I *33:Y O *D AND2X2
*I *34:A I *L 0.017346
*CAP
1 32_1 0.0010042
*RES
1 *33:Y 32_1 6.48
2 32_1 *34:A 0
*END
*D_NET *35 0.00029248
*CONN
*I *36:Y O *D OAI21X1
*I *37:A I *L 0.0125
*CAP
1 35_1 0.00029248
*RES
1 *36:Y 35_1 0.853333
2 35_1 *37:A 0
*END
*D_NET *38 0.00021936
*CONN
*I *39:Y O *D NAND2X1
*I *40:A I *L 0.00933171
*CAP
1 38_1 0.00021936
*RES
1 *39:Y 38_1 0.64
2 38_1 *40:A 0
*END
*D_NET *41 0.00129744
*CONN
*I *42:Y O *D OAI21X1
*I *43:A I *L 0.00933171
*CAP
1 41_1 0.00129744
*RES
1 *42:Y 41_1 5.76
2 41_1 *43:A 0
*END
*D_NET *44 0.000363
*CONN
*I *45:Y O *D BUFX2
*P *44 I
*CAP
1 44_1 0.000363
*RES
1 *45:Y 44_1 1.6
2 44_1 *44 0
*END
*D_NET *46 0.00061776
*CONN
*I *47:Y O *D BUFX2
*P *46 I
*CAP
1 46_1 0.00061776
*RES
1 *47:Y 46_1 2.77333
2 46_1 *46 0
*END
